@<TRIPOS>MOLECULE
*****
 6 5 0 0 0
SMALL
GASTEIGER

@<TRIPOS>ATOM
      1 C          -0.1796    1.4735    0.0111 C.3     1  UNL1        0.0330
      2 O           1.2456    1.5327   -0.0381 O.3     1  UNL1       -0.3982
      3 H           1.6039    0.9669    0.6700 H       1  UNL1        0.2090
      4 H          -0.6011    2.1030   -0.7772 H       1  UNL1        0.0521
      5 H          -0.5314    1.8309    0.9825 H       1  UNL1        0.0521
      6 H          -0.5124    0.4427   -0.1363 H       1  UNL1        0.0521
@<TRIPOS>BOND
     1     2     1    1
     2     2     3    1
     3     1     4    1
     4     1     5    1
     5     1     6    1
