@<TRIPOS>MOLECULE
*****
 5 4 0 0 0
SMALL
GASTEIGER

@<TRIPOS>ATOM
      1 C          -0.3663    1.4799    0.0000 C.3     1  UNL1       -0.0776
      2 H           0.7257    1.4799   -0.0000 H       1  UNL1        0.0194
      3 H          -0.7303    1.8547    0.9589 H       1  UNL1        0.0194
      4 H          -0.7303    0.4621   -0.1548 H       1  UNL1        0.0194
      5 H          -0.7303    2.1229   -0.8040 H       1  UNL1        0.0194
@<TRIPOS>BOND
     1     1     2    1
     2     1     3    1
     3     1     4    1
     4     1     5    1
