@<TRIPOS>MOLECULE
*****
 12 12 0 0 0
SMALL
GASTEIGER

@<TRIPOS>ATOM
      1 H           1.0947   -2.6650    0.0831 H       1  UNL1        0.0618
      2 C           0.5799   -1.7080    0.0467 C.ar    1  UNL1       -0.0618
      3 C          -0.8131   -1.6640    0.0804 C.ar    1  UNL1       -0.0618
      4 H          -1.3848   -2.5868    0.1431 H       1  UNL1        0.0618
      5 C          -1.4732   -0.4369    0.0337 C.ar    1  UNL1       -0.0618
      6 H          -2.5596   -0.4027    0.0600 H       1  UNL1        0.0618
      7 C          -0.7402    0.7463   -0.0467 C.ar    1  UNL1       -0.0618
      8 H          -1.2550    1.7033   -0.0831 H       1  UNL1        0.0618
      9 C           0.6528    0.7024   -0.0804 C.ar    1  UNL1       -0.0618
     10 H           1.2245    1.6251   -0.1431 H       1  UNL1        0.0618
     11 C           1.3129   -0.5248   -0.0337 C.ar    1  UNL1       -0.0618
     12 H           2.3994   -0.5590   -0.0600 H       1  UNL1        0.0618
@<TRIPOS>BOND
     1     1     2    1
     2     2     3   ar
     3     2    11   ar
     4     3     4    1
     5     3     5   ar
     6     5     6    1
     7     5     7   ar
     8     7     8    1
     9     7     9   ar
    10     9    10    1
    11     9    11   ar
    12    11    12    1
