@<TRIPOS>MOLECULE
*****
 4 3 0 0 0
SMALL
GASTEIGER

@<TRIPOS>ATOM
      1 N          -0.1579   -0.1966    0.1275 N.3     1  UNL1       -0.3437
      2 H           0.1560    0.5170    0.7820 H       1  UNL1        0.1146
      3 H           0.6742   -0.5997   -0.2985 H       1  UNL1        0.1146
      4 H          -0.6723    0.2793   -0.6110 H       1  UNL1        0.1146
@<TRIPOS>BOND
     1     1     2    1
     2     1     3    1
     3     1     4    1
