@<TRIPOS>MOLECULE
*****
 7 6 0 0 0
SMALL
GASTEIGER

@<TRIPOS>ATOM
      1 B          -0.7444    0.8070    0.0000 B       1  UNL1        0.0000
      2 O          -0.2339    1.8548    0.0000 O.3     1  UNL1        0.0000
      3 O          -1.9070    0.6343    0.0000 O.3     1  UNL1        0.0000
      4 O           0.0631   -0.0345    0.0000 O.3     1  UNL1        0.0000
      5 H           0.2306    2.8105    0.0000 H       1  UNL1        0.0000
      6 H          -2.9712    0.4752    0.0000 H       1  UNL1        0.0000
      7 H           0.8005   -0.8011    0.0000 H       1  UNL1        0.0000
@<TRIPOS>BOND
     1     1     2    1
     2     3     1    1
     3     4     1    1
     4     5     2    1
     5     6     3    1
     6     7     4    1
