@<TRIPOS>MOLECULE
*****
 13 13 0 0 0
SMALL
GASTEIGER

@<TRIPOS>ATOM
      1 H           1.4980    0.1662    2.0737 H       1  UNL1        0.0619
      2 C           0.9551    0.0922    1.1347 C.ar    1  UNL1       -0.0583
      3 C           1.6533    0.0098   -0.0691 C.ar    1  UNL1       -0.0615
      4 H           2.7407    0.0197   -0.0693 H       1  UNL1        0.0618
      5 C           0.9569   -0.0851   -1.2730 C.ar    1  UNL1       -0.0583
      6 H           1.5002   -0.1494   -2.2124 H       1  UNL1        0.0619
      7 C          -0.4371   -0.0977   -1.2732 C.ar    1  UNL1       -0.0202
      8 H          -0.9783   -0.1719   -2.2137 H       1  UNL1        0.0654
      9 C          -1.1361   -0.0154   -0.0694 C.ar    1  UNL1        0.1169
     10 C          -0.4391    0.0797    1.1355 C.ar    1  UNL1       -0.0202
     11 H          -0.9775    0.1442    2.0780 H       1  UNL1        0.0654
     12 O          -2.4990   -0.0282   -0.0764 O.3     1  UNL1       -0.5068
     13 H          -2.8369    0.0358    0.8347 H       1  UNL1        0.2921
@<TRIPOS>BOND
     1     1     2    1
     2     2     3   ar
     3     2    10   ar
     4     3     4    1
     5     3     5   ar
     6     5     6    1
     7     5     7   ar
     8     7     8    1
     9     7     9   ar
    10     9    10   ar
    11     9    12    1
    12    10    11    1
    13    12    13    1
