@<TRIPOS>MOLECULE
*****
 8 7 0 0 0
SMALL
GASTEIGER

@<TRIPOS>ATOM
      1 C          -2.7762    2.0202   -0.2026 C.2     1  UNL1        0.3016
      2 O          -1.5868    1.5318   -0.4222 O.3     1  UNL1       -0.4808
      3 H          -0.9778    2.2922   -0.4351 H       1  UNL1        0.2950
      4 O          -2.9804    3.2110   -0.0922 O.2     1  UNL1       -0.2513
      5 C          -3.8687    0.9751   -0.1962 C.3     1  UNL1        0.0331
      6 H          -4.2622    0.8400   -1.2059 H       1  UNL1        0.0342
      7 H          -4.6827    1.2828    0.4638 H       1  UNL1        0.0342
      8 H          -3.4853    0.0140    0.1556 H       1  UNL1        0.0342
@<TRIPOS>BOND
     1     2     1    1
     2     2     3    1
     3     4     1    2
     4     5     1    1
     5     5     6    1
     6     5     7    1
     7     5     8    1
