@<TRIPOS>MOLECULE
*****
 10 9 0 0 0
SMALL
GASTEIGER

@<TRIPOS>ATOM
      1 C1         -5.0172    1.4486    0.0025 C.3     1  UNL11       0.0000
      2 C2         -3.7783    0.5421   -0.1242 C.3     1  UNL11       0.0000
      3 C3         -2.4689    1.3397    0.0606 C.3     1  UNL11       0.0000
      4 C4         -1.2416    0.4060   -0.0164 C.3     1  UNL11       0.0000
      5 C5          0.0823    1.1982    0.0501 C.3     1  UNL11       0.0001
      6 C6          1.2938    0.2426   -0.0146 C.3     1  UNL11       0.0026
      7 C7          2.6295    1.0111    0.0659 C.3     1  UNL11       0.0317
      8 C8          3.8217    0.0349    0.0279 C.3     1  UNL11       0.1372
      9 O           5.0438    0.7628    0.1521 O.3     1  UNL11      -0.3820
     10 H           5.1282    1.3610   -0.6122 H       1  UNL11       0.2104
@<TRIPOS>BOND
     1     1     2    1
     2     2     3    1
     3     3     4    1
     4     4     5    1
     5     5     6    1
     6     6     7    1
     7     7     8    1
     8     8     9    1
     9     9    10    1
