@<TRIPOS>MOLECULE
*****
 12 11 0 0 0
SMALL
GASTEIGER

@<TRIPOS>ATOM
      1 H           2.4104    0.4462    0.2794 H       1  UNL1        0.0254
      2 C           1.5338    0.0439   -0.2337 C.3     1  UNL1       -0.0392
      3 H           1.5815    0.3447   -1.2832 H       1  UNL1        0.0254
      4 H           1.5809   -1.0463   -0.1839 H       1  UNL1        0.0254
      5 C           0.2411    0.5602    0.4270 C.3     1  UNL1        0.0496
      6 H           0.2272    0.2487    1.4754 H       1  UNL1        0.0588
      7 O           0.2225    1.9872    0.3632 O.3     1  UNL1       -0.3923
      8 H          -0.5817    2.3076    0.8110 H       1  UNL1        0.2098
      9 C          -1.0083    0.0038   -0.2827 C.3     1  UNL1       -0.0392
     10 H          -1.0286    0.3096   -1.3317 H       1  UNL1        0.0254
     11 H          -1.0179   -1.0879   -0.2413 H       1  UNL1        0.0254
     12 H          -1.9171    0.3701    0.2004 H       1  UNL1        0.0254
@<TRIPOS>BOND
     1     1     2    1
     2     2     3    1
     3     2     4    1
     4     2     5    1
     5     5     6    1
     6     5     7    1
     7     5     9    1
     8     7     8    1
     9     9    10    1
    10     9    11    1
    11     9    12    1
